# File generated by Flopy version 3.6.0.dev0 on 05/01/2024 at 14:30:23.
BEGIN options
END options

BEGIN dimensions
  MAXBOUND  100
END dimensions

BEGIN period  1
    OPEN/CLOSE  'inflow.ghb_stress_period_data_1.txt'
END period  1

BEGIN period  2
    OPEN/CLOSE  'inflow.ghb_stress_period_data_2.txt'
END period  2

BEGIN period  3
    OPEN/CLOSE  'inflow.ghb_stress_period_data_3.txt'
END period  3

