# File generated by Flopy version 3.6.0.dev0 on 05/01/2024 at 14:30:23.
BEGIN options
  SAVE_FLOWS
END options

BEGIN griddata
  iconvert
    OPEN/CLOSE  'model.sto_iconvert.txt'  FACTOR  1
  ss
    OPEN/CLOSE  'model.sto_ss.txt'  FACTOR  1.0
  sy
    OPEN/CLOSE  'model.sto_sy.txt'  FACTOR  1.0
END griddata

BEGIN period  1
  STEADY-STATE
END period  1

BEGIN period  2
  TRANSIENT
END period  2

