# File generated by Flopy version 3.6.0.dev0 on 05/01/2024 at 14:30:23.
BEGIN options
  DIGITS  10
END options

BEGIN continuous  FILEOUT  model.obs.drn.csv
    OPEN/CLOSE  'model.drn.obs_continuous_model.obs.drn.csv.txt'
END continuous  FILEOUT  model.obs.drn.csv

