# File generated by Flopy version 3.6.0.dev0 on 05/01/2024 at 14:30:23.
BEGIN griddata
  strt
    OPEN/CLOSE  'model.ic_strt.txt'  FACTOR  1.0
END griddata

