# File generated by Flopy version 3.6.0.dev0 on 05/01/2024 at 14:30:23.
BEGIN options
  SAVE_FLOWS
  NEWTON  UNDER_RELAXATION
END options

BEGIN packages
  DIS6  model.dis  dis
  NPF6  model.npf  npf
  STO6  model.sto  sto
  IC6  model.ic  ic
  OC6  model.oc  oc
  DRN6  model.drn  drn-gde
  RCH6  model.rcha  rch
  GHB6  inflow.ghb  ghb-inflow
  WEL6  dewater.wel  wel-dewater
  WEL6  mar.wel  wel-mar
  OBS6  model.obs  obs-head
END packages

