# File generated by Flopy version 3.6.0.dev0 on 05/01/2024 at 14:30:23.
BEGIN options
  DIGITS  10
END options

BEGIN continuous  FILEOUT  model.obs.head.pit.csv
    OPEN/CLOSE  'model.obs_continuous_model.obs.head.pit.csv.txt'
END continuous  FILEOUT  model.obs.head.pit.csv

BEGIN continuous  FILEOUT  model.obs.head.wel-mar.csv
    OPEN/CLOSE  'model.obs_continuous_model.obs.head.wel-mar.csv.txt'
END continuous  FILEOUT  model.obs.head.wel-mar.csv

