# File generated by Flopy version 3.6.0.dev0 on 05/01/2024 at 14:30:23.
BEGIN options
  READASARRAYS
END options

BEGIN period  1
  recharge
    OPEN/CLOSE  'model.rcha_recharge_1.txt'  FACTOR  1.0
END period  1

